tests/main/reference/hvdc_dangling/outputIIDM.xml
<?xml version="1.0" encoding="UTF-8"?>
<iidm:network xmlns:iidm="http://www.powsybl.org/schema/iidm/1_4" id="ieee14bus" caseDate="2017-06-09T10:14:24.146000+02:00" forecastDistance="0" sourceFormat="CIM1">
    <iidm:substation id="_BUS____1_SS" name="BUS    1_SS" country="AF">
        <iidm:voltageLevel id="_BUS____1_VL" name="BUS    1_VL" nominalV="400" topologyKind="BUS_BREAKER">
            <iidm:busBreakerTopology>
                <iidm:bus id="_BUS____1_TN" v="400.00000000003996" angle="0.014549202892646817"/>
            </iidm:busBreakerTopology>
            <iidm:generator id="_Generator___1" name="GEN    1" energySource="OTHER" minP="-9999" maxP="9999" voltageRegulatorOn="true" targetP="1000" targetV="400" targetQ="0" bus="_BUS____1_TN" connectableBus="_BUS____1_TN" p="-800.07593337465119" q="145.07554947532643">
                <iidm:minMaxReactiveLimits minQ="-999" maxQ="999"/>
            </iidm:generator>
        </iidm:voltageLevel>
    </iidm:substation>
    <iidm:substation id="_BUS____5_SS" name="BUS    5_SS" country="AF">
        <iidm:voltageLevel id="_BUS____5_VL" name="BUS    5_VL" nominalV="400" topologyKind="BUS_BREAKER">
            <iidm:busBreakerTopology>
                <iidm:bus id="_BUS____5_TN" v="399.98780936792508" angle="0"/>
            </iidm:busBreakerTopology>
            <iidm:load id="_Load___5" name="LOAD   5" loadType="UNDEFINED" p0="500" q0="0" bus="_BUS____5_TN" connectableBus="_BUS____5_TN" p="499.99998377264887" q="0"/>
        </iidm:voltageLevel>
    </iidm:substation>
    <iidm:substation id="_BUS___10_SS" name="BUS   10_SS" country="AF">
        <iidm:voltageLevel id="_BUS___10_VL" name="BUS   10_VL" nominalV="400" topologyKind="BUS_BREAKER">
            <iidm:busBreakerTopology>
                <iidm:bus id="_BUS___10_TN" v="399.97780496606896" angle="-0.0053007205438989702"/>
            </iidm:busBreakerTopology>
            <iidm:load id="_Load__10" name="LOAD  10" loadType="UNDEFINED" p0="500" q0="0" bus="_BUS___10_TN" connectableBus="_BUS___10_TN" p="500.02884066975162" q="0"/>
            <iidm:vscConverterStation id="VSCStation1" name="VSCS1" voltageRegulatorOn="true" lossFactor="0" voltageSetpoint="399.97780496606896" reactivePowerSetpoint="0" bus="_BUS___10_TN" connectableBus="_BUS___10_TN" p="-100" q="20.03714843033103">
                <iidm:reactiveCapabilityCurve>
                    <iidm:point p="-1011" minQ="-300" maxQ="300"/>
                    <iidm:point p="0" minQ="-600" maxQ="400"/>
                    <iidm:point p="1011" minQ="-300" maxQ="300"/>
                </iidm:reactiveCapabilityCurve>
            </iidm:vscConverterStation>
            <iidm:lccConverterStation id="LCCStation1" name="S1" lossFactor="0" powerFactor="-1" bus="_BUS___10_TN" connectableBus="_BUS___10_TN" p="-100" q="1.2246467991473532e-14"/>
        </iidm:voltageLevel>
    </iidm:substation>
    <iidm:substation id="_BUS___11_SS" name="BUS   11_SS" country="AF">
        <iidm:voltageLevel id="_BUS___11_VL" name="BUS   11_VL" nominalV="400" topologyKind="BUS_BREAKER">
            <iidm:busBreakerTopology>
                <iidm:bus id="_BUS___11_TN" v="0" angle="0"/>
            </iidm:busBreakerTopology>
            <iidm:vscConverterStation id="VSCStation2" name="VSCS2" voltageRegulatorOn="false" lossFactor="0" voltageSetpoint="400" reactivePowerSetpoint="0" bus="_BUS___11_TN" connectableBus="_BUS___11_TN" p="-0" q="-0">
                <iidm:reactiveCapabilityCurve>
                    <iidm:point p="-1011" minQ="-300" maxQ="300"/>
                    <iidm:point p="0" minQ="-600" maxQ="400"/>
                    <iidm:point p="1011" minQ="-300" maxQ="300"/>
                </iidm:reactiveCapabilityCurve>
            </iidm:vscConverterStation>
            <iidm:lccConverterStation id="LCCStation2" name="S2" lossFactor="0" powerFactor="1" bus="_BUS___11_TN" connectableBus="_BUS___11_TN" p="-0" q="-0"/>
        </iidm:voltageLevel>
    </iidm:substation>
    <iidm:line id="_BUS____1-BUS____5-1_AC" name="BUS    1-BUS    5-1" r="0.01" x="0.050000000000000003" g1="0" b1="0.00051670000000000004" g2="0" b2="0.00051670000000000004" bus1="_BUS____1_TN" connectableBus1="_BUS____1_TN" voltageLevelId1="_BUS____1_VL" bus2="_BUS____5_TN" connectableBus2="_BUS____5_TN" voltageLevelId2="_BUS____5_VL" p1="800.07472654479875" q1="-145.07842949725352" p2="-800.03447566167654" q2="-20.05927806266979">
        <iidm:currentLimits1 permanentLimit="836.74000000000001"/>
    </iidm:line>
    <iidm:line id="_BUS____5-BUS___10-1_AC" name="BUS    5-BUS   10-1" r="0.01" x="0.050000000000000003" g1="0" b1="0" g2="0" b2="0" bus1="_BUS____5_TN" connectableBus1="_BUS____5_TN" voltageLevelId1="_BUS____5_VL" bus2="_BUS___10_TN" connectableBus2="_BUS___10_TN" voltageLevelId2="_BUS___10_VL" p1="300.03449188900424" q1="20.059278062936485" p2="-300.02884010264995" q2="-20.031019131164751">
        <iidm:currentLimits1 permanentLimit="4183.6999999999998"/>
    </iidm:line>
    <iidm:hvdcLine id="HVDCLCCLine" r="0.02" nominalV="400" convertersMode="SIDE_1_INVERTER_SIDE_2_RECTIFIER" activePowerSetpoint="100" maxP="2000" converterStation1="LCCStation1" converterStation2="LCCStation2"/>
    <iidm:hvdcLine id="HVDCVSCLine" r="0.02" nominalV="400" convertersMode="SIDE_1_INVERTER_SIDE_2_RECTIFIER" activePowerSetpoint="100" maxP="2000" converterStation1="VSCStation2" converterStation2="VSCStation1"/>
</iidm:network>
